<?xml version="1.0" encoding="UTF-8"?>

<!-- generated on 17 نيسان, 2020 EEST 04:21:40 م by Eclipse SUMO netedit Version v1_1_0+0000-2147d155b1
<configuration xmlns:xsi="http://www.w3.org/2001/XMLSchema-instance" xsi:noNamespaceSchemaLocation="http://sumo.dlr.de/xsd/netconvertConfiguration.xsd">

    <input>
        <sumo-net-file value="/home/rayyan/Desktop/FYP/repos/ns3-gym/rl_fyp/sumo_files/sumo_two_lane_square/two_lane_square.net.xml"/>
    </input>

    <output>
        <output-file value="/home/rayyan/Desktop/FYP/repos/ns3-gym/rl_fyp/sumo_files/sumo_two_lane_square/two_lane_square.net.xml"/>
    </output>

    <processing>
        <geometry.max-grade.fix value="false"/>
        <offset.disable-normalization value="true"/>
        <lefthand value="false"/>
    </processing>

    <junctions>
        <no-turnarounds value="true"/>
        <junctions.corner-detail value="5"/>
        <junctions.limit-turn-speed value="5.5"/>
        <rectangular-lane-cut value="false"/>
    </junctions>

    <pedestrian>
        <walkingareas value="false"/>
    </pedestrian>

</configuration>
-->

<net version="1.1" junctionCornerDetail="5" limitTurnSpeed="5.50" xmlns:xsi="http://www.w3.org/2001/XMLSchema-instance" xsi:noNamespaceSchemaLocation="http://sumo.dlr.de/xsd/net_file.xsd">

    <location netOffset="0.00,0.00" convBoundary="0.00,0.00,200.00,200.00" origBoundary="-10000000000.00,-10000000000.00,10000000000.00,10000000000.00" projParameter="!"/>

    <edge id=":gneJ15_0" function="internal">
        <lane id=":gneJ15_0_0" index="0" speed="7.66" length="12.90" shape="208.00,200.00 207.50,203.50 206.00,206.00 203.50,207.50 200.00,208.00"/>
    </edge>
    <edge id=":gneJ15_1" function="internal">
        <lane id=":gneJ15_1_0" index="0" speed="6.08" length="7.74" shape="204.80,200.00 204.50,202.10 203.60,203.60 202.10,204.50 200.00,204.80"/>
    </edge>
    <edge id=":gneJ15_2" function="internal">
        <lane id=":gneJ15_2_0" index="0" speed="3.90" length="2.58" shape="201.60,200.00 201.50,200.70 201.20,201.20 200.70,201.50 200.00,201.60"/>
    </edge>
    <edge id=":gneJ16_0" function="internal">
        <lane id=":gneJ16_0_0" index="0" speed="7.66" length="12.90" shape="0.00,208.00 -3.50,207.50 -6.00,206.00 -7.50,203.50 -8.00,200.00"/>
    </edge>
    <edge id=":gneJ16_1" function="internal">
        <lane id=":gneJ16_1_0" index="0" speed="6.08" length="7.74" shape="0.00,204.80 -2.10,204.50 -3.60,203.60 -4.50,202.10 -4.80,200.00"/>
    </edge>
    <edge id=":gneJ16_2" function="internal">
        <lane id=":gneJ16_2_0" index="0" speed="3.90" length="2.58" shape="0.00,201.60 -0.70,201.50 -1.20,201.20 -1.50,200.70 -1.60,200.00"/>
    </edge>
    <edge id=":gneJ6_0" function="internal">
        <lane id=":gneJ6_0_0" index="0" speed="7.66" length="12.90" shape="-8.00,0.00 -7.50,-3.50 -6.00,-6.00 -3.50,-7.50 0.00,-8.00"/>
    </edge>
    <edge id=":gneJ6_1" function="internal">
        <lane id=":gneJ6_1_0" index="0" speed="6.08" length="7.74" shape="-4.80,0.00 -4.50,-2.10 -3.60,-3.60 -2.10,-4.50 0.00,-4.80"/>
    </edge>
    <edge id=":gneJ6_2" function="internal">
        <lane id=":gneJ6_2_0" index="0" speed="3.90" length="2.58" shape="-1.60,0.00 -1.50,-0.70 -1.20,-1.20 -0.70,-1.50 0.00,-1.60"/>
    </edge>
    <edge id=":gneJ7_0" function="internal">
        <lane id=":gneJ7_0_0" index="0" speed="7.66" length="12.90" shape="200.00,-8.00 203.50,-7.50 206.00,-6.00 207.50,-3.50 208.00,0.00"/>
    </edge>
    <edge id=":gneJ7_1" function="internal">
        <lane id=":gneJ7_1_0" index="0" speed="6.08" length="7.74" shape="200.00,-4.80 202.10,-4.50 203.60,-3.60 204.50,-2.10 204.80,0.00"/>
    </edge>
    <edge id=":gneJ7_2" function="internal">
        <lane id=":gneJ7_2_0" index="0" speed="3.90" length="2.58" shape="200.00,-1.60 200.70,-1.50 201.20,-1.20 201.50,-0.70 201.60,0.00"/>
    </edge>

    <edge id="gneE3" from="gneJ6" to="gneJ7" priority="-1" length="200.00">
        <lane id="gneE3_0" index="0" speed="50.00" length="200.00" shape="0.00,-8.00 200.00,-8.00"/>
        <lane id="gneE3_1" index="1" speed="50.00" length="200.00" shape="0.00,-4.80 200.00,-4.80"/>
        <lane id="gneE3_2" index="2" speed="50.00" length="200.00" shape="0.00,-1.60 200.00,-1.60"/>
    </edge>
    <edge id="gneE7" from="gneJ7" to="gneJ15" priority="-1" length="250.00">
        <lane id="gneE7_0" index="0" speed="50.00" length="250.00" shape="208.00,0.00 208.00,200.00"/>
        <lane id="gneE7_1" index="1" speed="50.00" length="250.00" shape="204.80,0.00 204.80,200.00"/>
        <lane id="gneE7_2" index="2" speed="50.00" length="250.00" shape="201.60,0.00 201.60,200.00"/>
    </edge>
    <edge id="gneE8" from="gneJ15" to="gneJ16" priority="-1" length="200.00">
        <lane id="gneE8_0" index="0" speed="50.00" length="200.00" shape="200.00,208.00 0.00,208.00"/>
        <lane id="gneE8_1" index="1" speed="50.00" length="200.00" shape="200.00,204.80 0.00,204.80"/>
        <lane id="gneE8_2" index="2" speed="50.00" length="200.00" shape="200.00,201.60 0.00,201.60"/>
    </edge>
    <edge id="gneE9" from="gneJ16" to="gneJ6" priority="-1" length="200.00">
        <lane id="gneE9_0" index="0" speed="50.00" length="200.00" shape="-8.00,200.00 -8.00,0.00"/>
        <lane id="gneE9_1" index="1" speed="50.00" length="200.00" shape="-4.80,200.00 -4.80,0.00"/>
        <lane id="gneE9_2" index="2" speed="50.00" length="200.00" shape="-1.60,200.00 -1.60,0.00"/>
    </edge>

    <tlLogic id="gneJ16" type="static" programID="0" offset="0">
        <phase duration="275" state="GGG"/>
        <phase duration="15" state="yyy"/>
        <phase duration="15"  state="rrr"/>
    </tlLogic>

    <junction id="gneJ15" type="priority" x="200.00" y="200.00" incLanes="gneE7_0 gneE7_1 gneE7_2" intLanes=":gneJ15_0_0 :gneJ15_1_0 :gneJ15_2_0" shape="209.60,200.00 200.00,200.00 200.00,209.60 202.93,209.33 205.33,208.53 207.20,207.20 208.53,205.33 209.33,202.93" rightOfWay="edgePriority">
        <request index="0" response="000" foes="000" cont="0"/>
        <request index="1" response="000" foes="000" cont="0"/>
        <request index="2" response="000" foes="000" cont="0"/>
    </junction>
    <junction id="gneJ16" type="traffic_light" x="0.00" y="200.00" incLanes="gneE8_0 gneE8_1 gneE8_2" intLanes=":gneJ16_0_0 :gneJ16_1_0 :gneJ16_2_0" shape="0.00,209.60 0.00,200.00 -9.60,200.00 -9.33,202.93 -8.53,205.33 -7.20,207.20 -5.33,208.53 -2.93,209.33">
        <request index="0" response="000" foes="000" cont="0"/>
        <request index="1" response="000" foes="000" cont="0"/>
        <request index="2" response="000" foes="000" cont="0"/>
    </junction>
    <junction id="gneJ6" type="priority" x="0.00" y="0.00" incLanes="gneE9_0 gneE9_1 gneE9_2" intLanes=":gneJ6_0_0 :gneJ6_1_0 :gneJ6_2_0" shape="-9.60,0.00 0.00,0.00 0.00,-9.60 -2.93,-9.33 -5.33,-8.53 -7.20,-7.20 -8.53,-5.33 -9.33,-2.93">
        <request index="0" response="000" foes="000" cont="0"/>
        <request index="1" response="000" foes="000" cont="0"/>
        <request index="2" response="000" foes="000" cont="0"/>
    </junction>
    <junction id="gneJ7" type="priority" x="200.00" y="0.00" incLanes="gneE3_0 gneE3_1 gneE3_2" intLanes=":gneJ7_0_0 :gneJ7_1_0 :gneJ7_2_0" shape="200.00,0.00 209.60,0.00 209.33,-2.93 208.53,-5.33 207.20,-7.20 205.33,-8.53 202.93,-9.33 200.00,-9.60">
        <request index="0" response="000" foes="000" cont="0"/>
        <request index="1" response="000" foes="000" cont="0"/>
        <request index="2" response="000" foes="000" cont="0"/>
    </junction>

    <connection from="gneE3" to="gneE7" fromLane="0" toLane="0" via=":gneJ7_0_0" dir="l" state="M"/>
    <connection from="gneE3" to="gneE7" fromLane="1" toLane="1" via=":gneJ7_1_0" dir="l" state="M"/>
    <connection from="gneE3" to="gneE7" fromLane="2" toLane="2" via=":gneJ7_2_0" dir="l" state="M"/>
    <connection from="gneE7" to="gneE8" fromLane="0" toLane="0" via=":gneJ15_0_0" dir="l" state="M"/>
    <connection from="gneE7" to="gneE8" fromLane="1" toLane="1" via=":gneJ15_1_0" dir="l" state="M"/>
    <connection from="gneE7" to="gneE8" fromLane="2" toLane="2" via=":gneJ15_2_0" dir="l" state="M"/>
    <connection from="gneE8" to="gneE9" fromLane="0" toLane="0" via=":gneJ16_0_0" tl="gneJ16" linkIndex="0" dir="l" state="O"/>
    <connection from="gneE8" to="gneE9" fromLane="1" toLane="1" via=":gneJ16_1_0" tl="gneJ16" linkIndex="1" dir="l" state="O"/>
    <connection from="gneE8" to="gneE9" fromLane="2" toLane="2" via=":gneJ16_2_0" tl="gneJ16" linkIndex="2" dir="l" state="O"/>
    <connection from="gneE9" to="gneE3" fromLane="0" toLane="0" via=":gneJ6_0_0" dir="l" state="M"/>
    <connection from="gneE9" to="gneE3" fromLane="1" toLane="1" via=":gneJ6_1_0" dir="l" state="M"/>
    <connection from="gneE9" to="gneE3" fromLane="2" toLane="2" via=":gneJ6_2_0" dir="l" state="M"/>

    <connection from=":gneJ15_0" to="gneE8" fromLane="0" toLane="0" dir="l" state="M"/>
    <connection from=":gneJ15_1" to="gneE8" fromLane="0" toLane="1" dir="l" state="M"/>
    <connection from=":gneJ15_2" to="gneE8" fromLane="0" toLane="2" dir="l" state="M"/>
    <connection from=":gneJ16_0" to="gneE9" fromLane="0" toLane="0" dir="l" state="M"/>
    <connection from=":gneJ16_1" to="gneE9" fromLane="0" toLane="1" dir="l" state="M"/>
    <connection from=":gneJ16_2" to="gneE9" fromLane="0" toLane="2" dir="l" state="M"/>
    <connection from=":gneJ6_0" to="gneE3" fromLane="0" toLane="0" dir="l" state="M"/>
    <connection from=":gneJ6_1" to="gneE3" fromLane="0" toLane="1" dir="l" state="M"/>
    <connection from=":gneJ6_2" to="gneE3" fromLane="0" toLane="2" dir="l" state="M"/>
    <connection from=":gneJ7_0" to="gneE7" fromLane="0" toLane="0" dir="l" state="M"/>
    <connection from=":gneJ7_1" to="gneE7" fromLane="0" toLane="1" dir="l" state="M"/>
    <connection from=":gneJ7_2" to="gneE7" fromLane="0" toLane="2" dir="l" state="M"/>

</net>
