<?xml version="1.0" encoding="UTF-8"?>

<!-- generated on Sun 15 Mar 2020 07:11:21 PM EET by Eclipse SUMO netedit Version v1_1_0+0000-2147d155b1
<configuration xmlns:xsi="http://www.w3.org/2001/XMLSchema-instance" xsi:noNamespaceSchemaLocation="http://sumo.dlr.de/xsd/netconvertConfiguration.xsd">

    <input>
        <sumo-net-file value="/home/jihad/Desktop/ns3-gym/rl_fyp/sumo_files/sumo-highway-merge/merge-baseline_20191204-1224431575455083.45716.net.xml"/>
    </input>

    <output>
        <output-file value="/home/jihad/Desktop/ns3-gym/rl_fyp/sumo_files/sumo-highway-merge/merge-baseline_20191204-1224431575455083.45716.net.xml"/>
    </output>

    <processing>
        <geometry.max-grade.fix value="false"/>
        <offset.disable-normalization value="true"/>
        <lefthand value="false"/>
    </processing>

    <junctions>
        <no-turnarounds value="true"/>
        <junctions.corner-detail value="5"/>
        <junctions.limit-turn-speed value="5.5"/>
        <rectangular-lane-cut value="false"/>
    </junctions>

    <pedestrian>
        <walkingareas value="false"/>
    </pedestrian>

</configuration>
-->

<net version="1.1" junctionCornerDetail="5" limitTurnSpeed="5.50" xmlns:xsi="http://www.w3.org/2001/XMLSchema-instance" xsi:noNamespaceSchemaLocation="http://sumo.dlr.de/xsd/net_file.xsd">

    <location netOffset="100.00,141.42" convBoundary="0.00,0.00,700.00,141.42" origBoundary="-100.00,-141.42,600.00,0.00" projParameter="!"/>

    <type id="highwayType" numLanes="1" speed="30.00"/>
    <type id="mergeType" numLanes="1" speed="30.00"/>

    <edge id=":bottom_0" function="internal">
        <lane id=":bottom_0_0" index="0" speed="30.00" length="0.10" shape="130.42,69.58 130.42,69.58"/>
    </edge>
    <edge id=":center_0" function="internal">
        <lane id=":center_0_0" index="0" speed="15.67" length="22.95" shape="190.86,130.02 194.85,133.04 200.54,136.24 206.52,138.79 211.33,139.82"/>
    </edge>
    <edge id=":center_1" function="internal">
        <lane id=":center_1_0" index="0" speed="30.00" length="24.53" shape="186.80,139.82 211.33,139.82"/>
    </edge>
    <edge id=":left_0" function="internal">
        <lane id=":left_0_0" index="0" speed="30.00" length="0.10" shape="100.00,139.82 100.00,139.82"/>
    </edge>

    <edge id="bottom" from="bottom" to="center" priority="-1" type="mergeType" length="100.00" shape="129.29,70.71 200.00,141.42">
        <lane id="bottom_0" index="0" speed="30.00" length="100.00" shape="130.42,69.58 190.86,130.02"/>
    </edge>
    <edge id="center" from="center" to="right" priority="-1" type="highwayType" length="100.00">
        <lane id="center_0" index="0" speed="30.00" length="100.00" shape="211.33,139.82 700.00,139.82"/>
    </edge>
    <edge id="inflow_highway" from="inflow_highway" to="left" priority="-1" type="highwayType" length="100.00">
        <lane id="inflow_highway_0" index="0" speed="30.00" length="100.00" shape="0.00,139.82 100.00,139.82"/>
    </edge>
    <edge id="inflow_merge" from="inflow_merge" to="bottom" priority="-1" type="mergeType" length="100.00" shape="58.58,0.00 129.29,70.71">
        <lane id="inflow_merge_0" index="0" speed="30.00" length="100.00" shape="59.71,-1.13 130.42,69.58"/>
    </edge>
    <edge id="left" from="left" to="center" priority="-1" type="highwayType" length="500.00">
        <lane id="left_0" index="0" speed="30.00" length="500.00" shape="100.00,139.82 186.80,139.82"/>
    </edge>

    <junction id="bottom" type="priority" x="129.29" y="70.71" incLanes="inflow_merge_0" intLanes=":bottom_0_0" shape="129.29,70.71 131.55,68.45 129.29,70.71">
        <request index="0" response="0" foes="0" cont="0"/>
    </junction>
    <junction id="center" type="priority" x="200.00" y="141.42" incLanes="bottom_0 left_0" intLanes=":center_0_0 :center_1_0" shape="211.33,141.42 211.33,138.22 208.01,137.96 204.73,137.18 201.49,135.89 198.29,134.07 195.12,131.74 191.99,128.89 189.73,131.15 191.61,133.31 192.55,135.08 192.53,136.45 191.57,137.43 189.66,138.02 186.80,138.22 186.80,141.42" radius="10.00">
        <request index="0" response="00" foes="10" cont="0"/>
        <request index="1" response="01" foes="01" cont="0"/>
    </junction>
    <junction id="inflow_highway" type="dead_end" x="0.00" y="141.42" incLanes="" intLanes="" shape="0.00,141.42 0.00,138.22"/>
    <junction id="inflow_merge" type="dead_end" x="58.58" y="0.00" incLanes="" intLanes="" shape="58.58,0.00 60.84,-2.26"/>
    <junction id="left" type="priority" x="100.00" y="141.42" incLanes="inflow_highway_0" intLanes=":left_0_0" shape="100.00,141.42 100.00,138.22 100.00,141.42">
        <request index="0" response="0" foes="0" cont="0"/>
    </junction>
    <junction id="right" type="dead_end" x="700.00" y="141.42" incLanes="center_0" intLanes="" shape="700.00,138.22 700.00,141.42"/>

    <connection from="bottom" to="center" fromLane="0" toLane="0" via=":center_0_0" dir="r" state="M"/>
    <connection from="inflow_highway" to="left" fromLane="0" toLane="0" via=":left_0_0" dir="s" state="M"/>
    <connection from="inflow_merge" to="bottom" fromLane="0" toLane="0" via=":bottom_0_0" dir="s" state="M"/>
    <connection from="left" to="center" fromLane="0" toLane="0" via=":center_1_0" dir="s" state="m"/>

    <connection from=":bottom_0" to="bottom" fromLane="0" toLane="0" dir="s" state="M"/>
    <connection from=":center_0" to="center" fromLane="0" toLane="0" dir="r" state="M"/>
    <connection from=":center_1" to="center" fromLane="0" toLane="0" dir="s" state="M"/>
    <connection from=":left_0" to="left" fromLane="0" toLane="0" dir="s" state="M"/>

</net>
