<?xml version="1.0" encoding="UTF-8"?>

<!-- generated on Sat Apr  4 23:45:59 2020 by Eclipse SUMO polyconvert Version v1_3_1+1135-c7be102a27
<configuration xmlns:xsi="http://www.w3.org/2001/XMLSchema-instance" xsi:noNamespaceSchemaLocation="http://sumo.dlr.de/xsd/polyconvertConfiguration.xsd">

    <input>
        <net-file value="osm.net.xml"/>
        <osm-files value="osm_bbox.osm.xml"/>
        <osm.keep-full-type value="true"/>
        <type-file value="/home/jihad/sumo_binaries/bin/data/typemap/osmPolyconvert.typ.xml"/>
    </input>

    <output>
        <output-file value="osm.poly.xml"/>
    </output>

    <processing>
        <poi-layer-offset value="5"/>
    </processing>

    <report>
        <verbose value="true"/>
    </report>

</configuration>
-->

<additional xmlns:xsi="http://www.w3.org/2001/XMLSchema-instance" xsi:noNamespaceSchemaLocation="http://sumo.dlr.de/xsd/additional_file.xsd">
    <location netOffset="-728423.50,-3753332.48" convBoundary="-237.90,-0.00,2084.31,918.94" origBoundary="35.467735,33.895645,35.492861,33.903693" projParameter="+proj=utm +zone=36 +ellps=WGS84 +datum=WGS84 +units=m +no_defs"/>

    <poly id="194547285" type="amenity.university" color="237,199,199" fill="1" layer="-1.00" shape="992.643750,773.993087 1012.049802,769.767657 1015.882493,768.939159 1029.650912,765.942556 1033.381604,765.122698 1057.299570,759.918816 1046.235631,709.610156 1034.778415,657.571815 1010.748424,662.806359 1007.045711,663.615807 993.947086,666.462170 990.737239,667.172556 970.121692,671.657365 981.486877,723.304947 983.296548,731.516856 992.643750,773.993087"/>
    <poly id="194547285#1" type="leisure.pitch" color="207,245,201" fill="1" layer="-2.00" shape="992.643750,773.993087 1012.049802,769.767657 1015.882493,768.939159 1029.650912,765.942556 1033.381604,765.122698 1057.299570,759.918816 1046.235631,709.610156 1034.778415,657.571815 1010.748424,662.806359 1007.045711,663.615807 993.947086,666.462170 990.737239,667.172556 970.121692,671.657365 981.486877,723.304947 983.296548,731.516856 992.643750,773.993087"/>
    <poly id="194547285#2" type="sport.soccer" color="79,230,125" fill="1" layer="-2.00" shape="992.643750,773.993087 1012.049802,769.767657 1015.882493,768.939159 1029.650912,765.942556 1033.381604,765.122698 1057.299570,759.918816 1046.235631,709.610156 1034.778415,657.571815 1010.748424,662.806359 1007.045711,663.615807 993.947086,666.462170 990.737239,667.172556 970.121692,671.657365 981.486877,723.304947 983.296548,731.516856 992.643750,773.993087"/>
    <poly id="25578942" type="building.university" color="255,230,230" fill="1" layer="-1.00" shape="1084.062709,498.096557 1137.812478,492.326729 1139.137334,504.511155 1140.544602,518.262403 1086.747527,523.698119 1085.399426,510.558709 1084.062709,498.096557"/>
    <poly id="25578955" type="building.university" color="255,230,230" fill="1" layer="-1.00" shape="1091.673474,535.070656 1113.959527,532.701815 1134.575433,530.514599 1138.067341,562.916627 1130.913951,563.675878 1132.274313,576.305086 1103.818573,579.323757 1102.511384,567.173058 1095.209485,567.950941 1091.673474,535.070656"/>
    <poly id="25578972" type="building.university" color="255,230,230" fill="1" layer="-1.00" shape="884.587319,529.466740 890.435495,505.736107 927.106210,514.712488 924.203385,526.461781 921.248695,538.442881 884.587319,529.466740"/>
    <poly id="25579036" type="amenity.university" color="237,199,199" fill="1" layer="-1.00" shape="1320.411722,422.264892 1318.324890,406.011183 1302.907996,339.426931 1290.782066,272.600513 1489.105470,222.232687 1502.407053,280.586784 1487.939538,285.663377 1491.319656,299.329309 1495.744307,317.248917 1500.186117,326.434738 1509.656132,366.828129 1480.891981,374.521657 1484.013585,386.250260 1490.742897,410.651485 1489.746000,410.926990 1446.696655,422.680597 1451.526046,442.230308 1443.530765,445.266253 1451.067948,488.664759 1464.022647,514.326531 1465.780599,528.863223 1456.422670,567.535449 1457.876692,588.890114 1443.755343,591.156205 1413.099618,596.739833 1407.395109,590.020544 1402.818493,587.934278 1397.850376,588.257920 1393.371765,585.563636 1367.727497,590.181124 1317.687756,612.442389 1240.733453,647.092930 1246.910580,662.202601 1244.403247,666.769837 1174.251105,686.514256 1179.956223,701.246225 1201.431515,755.713475 1166.087377,765.013267 1016.580203,804.392147 995.515102,804.515573 722.053716,739.978231 728.880665,687.183203 731.018653,670.687642 741.942907,586.173461 772.127165,464.790482 761.503301,457.120501 748.492257,454.031884 762.128268,397.117413 753.367313,396.228930 677.975135,378.072889 681.850138,362.074265 786.296894,385.393198 911.313333,417.622534 1087.098782,455.198248 1230.556256,435.073138 1320.411722,422.264892"/>
    <poly id="276065308" type="leisure.swimming_pool" color="207,245,201" fill="1" layer="-2.00" shape="246.795057,629.733894 255.164320,643.031142 265.248793,636.604194 264.214518,627.678685 259.156046,621.386336 253.048633,617.532475 248.991679,621.141473 242.393482,616.532231 238.538690,622.121546 242.750134,632.843774 246.795057,629.733894"/>
    <poly id="276065308#1" type="sport.swimming" color="79,230,125" fill="1" layer="-2.00" shape="246.795057,629.733894 255.164320,643.031142 265.248793,636.604194 264.214518,627.678685 259.156046,621.386336 253.048633,617.532475 248.991679,621.141473 242.393482,616.532231 238.538690,622.121546 242.750134,632.843774 246.795057,629.733894"/>
    <poly id="277260991" type="building.university" color="255,230,230" fill="1" layer="-1.00" shape="1339.230288,477.145362 1341.195842,494.583642 1334.152824,495.367613 1323.425906,496.561845 1321.317340,477.766144 1317.095383,478.229970 1307.120029,479.342528 1310.712738,511.380864 1321.124101,510.223374 1321.954794,517.579314 1358.570961,513.504718 1357.618892,505.047123 1363.112237,504.436522 1361.232356,487.666194 1359.793326,474.857458 1339.230288,477.145362"/>
    <poly id="277261528" type="building.university" color="255,230,230" fill="1" layer="-1.00" shape="724.095631,729.761839 751.731225,732.704120 752.244871,727.911070 758.216706,728.554665 759.316100,718.282227 744.030556,716.659103 744.506812,712.264679 745.734972,700.874448 734.750989,699.699232 734.478289,702.178609 727.140041,701.402161 724.095631,729.761839"/>
    <poly id="277757863" type="building.university" color="255,230,230" fill="1" layer="-1.00" shape="789.387918,662.874436 788.099641,673.686116 783.162825,673.100790 758.872953,670.327994 731.840486,667.311482 733.054440,656.509104 760.271645,659.541175 784.810993,662.331095 789.387918,662.874436"/>
    <poly id="277757890" type="amenity.parking" color="184,184,179" fill="1" layer="-1.00" shape="795.585956,677.529245 793.207121,694.030082 728.880665,687.183203 731.018653,670.687642 795.585956,677.529245"/>
    <poly id="277757891" type="amenity.parking" color="184,184,179" fill="1" layer="-1.00" shape="795.623302,656.821198 736.422289,650.786134 739.264089,623.154038 753.877571,624.638839 770.546810,614.953180 799.616833,617.908012 795.623302,656.821198"/>
    <poly id="277757931" type="building.yes" color="255,230,230" fill="1" layer="-1.00" shape="794.341040,747.860781 851.438518,763.567338 853.323530,756.787569 855.210419,749.930159 836.979919,744.950723 829.524534,742.895088 805.161048,736.280457 798.091685,734.334052 794.341040,747.860781"/>
    <poly id="277758052" type="building.university" color="255,230,230" fill="1" layer="-1.00" shape="796.697204,711.604877 797.095439,699.328959 818.455905,700.011269 817.931263,713.305156 811.427402,718.597227 796.697204,711.604877"/>
    <poly id="277758246" type="building.university" color="255,230,230" fill="1" layer="-1.00" shape="832.668684,697.391345 847.665671,699.085327 842.865750,741.108684 837.439060,740.500397 829.687601,739.591808 827.795645,739.379644 830.512725,715.773131 832.046170,702.858745 832.668684,697.391345"/>
    <poly id="277758446" type="building.university" color="255,230,230" fill="1" layer="-1.00" shape="742.579192,595.466780 753.688226,586.867644 758.562776,593.100348 763.740251,589.085782 772.384934,600.148384 764.670531,606.132635 762.202097,602.965586 755.751408,607.970433 761.891459,615.831812 753.017251,622.709206 743.555565,610.605878 750.317347,605.364378 742.579192,595.466780"/>
    <poly id="277758500" type="building.university" color="255,230,230" fill="1" layer="-1.00" shape="783.470828,609.372175 785.188720,593.798711 846.704974,600.544756 845.910642,607.761497 844.986980,616.118214 783.470828,609.372175"/>
    <poly id="277758598" type="building.university" color="255,230,230" fill="1" layer="-1.00" shape="942.516418,616.898369 958.402581,612.055051 962.813115,626.378241 946.936221,631.221774 942.516418,616.898369"/>
    <poly id="277758634" type="building.yes" color="255,230,230" fill="1" layer="-1.00" shape="877.671241,618.095167 878.323126,611.796124 879.130612,604.035897 899.735061,606.142857 898.275392,620.213218 877.671241,618.095167"/>
    <poly id="277758635" type="building.university" color="255,230,230" fill="1" layer="-1.00" shape="915.377515,599.895225 922.862810,607.611649 934.999139,595.952273 927.514110,588.224748 915.377515,599.895225"/>
    <poly id="277758693" type="building.university" color="255,230,230" fill="1" layer="-1.00" shape="898.682256,557.019646 911.596443,556.832219 911.391494,569.146105 904.412649,568.811034 892.701352,568.239567 893.350032,562.073623 899.068351,561.723449 898.682256,557.019646"/>
    <poly id="277758750" type="building.university" color="255,230,230" fill="1" layer="-1.00" shape="769.367322,564.916936 771.566523,548.955564 795.041346,552.152610 792.831249,568.180305 786.669908,567.332355 775.159783,565.711576 769.367322,564.916936"/>
    <poly id="278976988" type="building.university" color="255,230,230" fill="1" layer="-1.00" shape="892.714560,502.184295 917.333163,508.605505 926.757954,472.820027 913.680747,469.407736 902.139529,466.387706 892.714560,502.184295"/>
    <poly id="283639683" type="building.university" color="255,230,230" fill="1" layer="-1.00" shape="1171.830731,610.966594 1185.302912,631.324483 1219.230096,609.083377 1205.748699,588.725215 1192.405424,597.469577 1171.830731,610.966594"/>
    <poly id="30733305" type="natural.water" color="181,209,209" fill="1" layer="-4.00" shape="283.699551,632.842580 289.287840,637.116776 284.491712,655.656951 273.619921,653.663727 270.827969,651.243687 283.699551,632.842580"/>
    <poly id="30733305#1" type="sport.swimming" color="79,230,125" fill="1" layer="-2.00" shape="283.699551,632.842580 289.287840,637.116776 284.491712,655.656951 273.619921,653.663727 270.827969,651.243687 283.699551,632.842580"/>
    <poly id="331969172" type="building.university" color="255,230,230" fill="1" layer="-1.00" shape="1070.141749,730.930394 1086.478927,717.763551 1110.111838,710.577442 1124.163357,756.341652 1136.562246,752.579606 1151.257510,747.996368 1155.158899,760.398495 1116.761274,772.365838 1092.815610,758.813159 1070.141749,730.930394"/>
    <poly id="332096006" type="building.university" color="255,230,230" fill="1" layer="-1.00" shape="950.501576,495.156984 951.128436,505.981635 960.506806,505.442481 960.976808,513.566516 969.901173,513.049696 976.555006,512.666682 975.834339,500.363718 977.789877,500.244504 977.325117,492.287064 968.410248,492.793010 968.788015,499.372188 961.624412,499.787282 961.325734,494.530685 950.501576,495.156984"/>
    <poly id="332096610" type="building.university" color="255,230,230" fill="1" layer="-1.00" shape="1102.674578,682.130815 1105.222269,682.014850 1105.364453,684.937081 1124.856761,684.043370 1124.624668,679.099115 1126.940874,678.988656 1126.327010,665.722711 1120.888610,665.979631 1120.841441,664.868684 1116.181276,665.088935 1116.243188,666.355613 1101.966470,667.020316 1102.674578,682.130815"/>
    <poly id="332096611" type="building.university" color="255,230,230" fill="1" layer="-1.00" shape="1088.299175,674.247637 1088.803591,686.301239 1092.656960,686.150252 1092.978446,693.904478 1068.838217,694.896743 1068.565495,688.186916 1072.326374,688.033685 1071.791920,674.925042 1088.299175,674.247637"/>
    <poly id="332096612" type="building.university" color="255,230,230" fill="1" layer="-1.00" shape="1251.735344,540.817522 1254.367678,539.882384 1277.932161,532.106795 1280.589186,540.095121 1289.302250,537.220693 1290.665337,541.315577 1291.402374,543.364362 1295.640281,541.857693 1299.576493,552.817974 1269.061235,563.688156 1264.587528,551.227741 1256.513193,554.095448 1251.735344,540.817522"/>
    <poly id="332096982" type="building.university" color="255,230,230" fill="1" layer="-1.00" shape="840.962494,690.022791 846.628876,690.670161 886.755434,695.235202 886.134764,700.624959 897.569248,701.922215 901.566327,667.093208 896.435019,666.514222 890.979736,665.938511 889.600491,678.978697 849.299350,674.742374 842.793200,673.997034 840.962494,690.022791"/>
    <poly id="332097930" type="building.university" color="255,230,230" fill="1" layer="-1.00" shape="1220.298222,586.735487 1228.176943,601.897401 1250.236060,590.545050 1242.348114,575.382892 1225.293051,584.159488 1220.298222,586.735487"/>
    <poly id="332097931" type="leisure.park" color="207,245,201" fill="1" layer="-2.00" shape="1120.877236,717.729671 1119.736916,721.641912 1118.851943,725.327268 1118.347618,730.875207 1118.877000,736.536928 1120.055406,741.381989 1121.718507,745.317631 1123.869252,748.221847 1125.853402,749.978933 1128.714726,749.903854 1131.450077,748.149920 1133.981338,742.972845 1135.004135,737.415248 1135.340920,731.907649 1135.166894,725.710715 1133.419247,719.531215 1131.225751,715.715921 1128.316596,713.559130 1125.168015,713.649459 1122.417645,715.258757 1120.877236,717.729671"/>
    <poly id="332098447" type="building.university" color="255,230,230" fill="1" layer="-1.00" shape="1358.438395,569.446990 1363.952229,582.898172 1385.364454,574.194001 1389.439377,572.539152 1383.916321,559.087731 1358.438395,569.446990"/>
    <poly id="332098448" type="building.university" color="255,230,230" fill="1" layer="-1.00" shape="1322.636901,572.753323 1321.363874,582.144791 1324.287970,582.537406 1323.477899,588.477474 1351.943809,592.307226 1352.405434,588.911286 1352.857005,585.548396 1344.527591,584.425639 1345.688286,575.852713 1322.636901,572.753323"/>
    <poly id="332098449" type="building.university" color="255,230,230" fill="1" layer="-1.00" shape="1421.098358,575.591859 1424.136000,591.169453 1451.434272,585.892988 1448.387153,570.326250 1437.043928,572.515352 1421.098358,575.591859"/>
    <poly id="332098450" type="building.university" color="255,230,230" fill="1" layer="-1.00" shape="1434.162069,538.274523 1432.201391,551.600257 1441.312419,552.930683 1448.514568,553.981834 1450.484518,540.656326 1434.162069,538.274523"/>
    <poly id="332098451" type="building.university" color="255,230,230" fill="1" layer="-1.00" shape="1403.596223,528.289742 1401.181794,543.158226 1405.108926,543.786013 1408.141602,544.281165 1411.082327,544.751895 1427.961160,547.468976 1430.375362,532.611588 1422.835015,531.385792 1403.596223,528.289742"/>
    <poly id="332098452" type="building.university" color="255,230,230" fill="1" layer="-1.00" shape="1329.557002,541.868354 1328.475588,544.871959 1327.332508,548.129328 1326.347342,550.979889 1325.907642,552.323214 1329.277547,553.414702 1328.478042,555.859127 1330.957248,556.662703 1329.887085,559.966229 1337.719448,562.508594 1338.489060,560.152231 1339.976637,560.632160 1345.393293,544.071738 1339.810515,542.260799 1339.819816,540.729488 1332.713994,540.668483 1329.557002,541.868354"/>
    <poly id="332098453" type="building.yes" color="255,230,230" fill="1" layer="-1.00" shape="1318.437658,547.425737 1319.584493,544.013085 1321.049843,539.675902 1327.133796,541.809706 1326.390322,544.233292 1328.475588,544.871959 1327.332508,548.129328 1325.856057,547.571984 1324.718861,547.144930 1324.099649,549.405052 1318.437658,547.425737"/>
    <poly id="332130565" type="building.university" color="255,230,230" fill="1" layer="-1.00" shape="1207.425026,646.054052 1209.322552,649.862204 1199.010608,654.950929 1207.525589,675.943615 1228.355432,667.580168 1225.919505,662.693569 1242.328613,654.600534 1238.612802,647.152603 1241.272728,645.840796 1231.502597,626.238265 1227.195807,617.588548 1191.033594,635.436213 1198.517834,650.455385 1207.425026,646.054052"/>
    <poly id="332130566" type="building.yes" color="255,230,230" fill="1" layer="-1.00" shape="1236.806634,612.793634 1239.822317,611.312863 1249.749763,606.436837 1252.882000,612.760843 1261.385921,608.582859 1272.213533,630.375138 1247.657016,642.443876 1237.059369,621.090016 1240.168611,619.567117 1236.806634,612.793634"/>
    <poly id="332147138" type="building.university" color="255,230,230" fill="1" layer="-1.00" shape="868.453954,711.196020 862.959713,759.739353 900.688028,763.969095 901.134873,760.028983 909.930069,761.018339 909.189298,767.548294 919.996669,768.752746 921.843188,752.461022 923.515874,737.618944 914.019098,736.557136 916.278817,716.568645 868.453954,711.196020"/>
    <poly id="332147139" type="building.university" color="255,230,230" fill="1" layer="-1.00" shape="931.615843,740.189641 954.861601,737.144479 965.328001,735.610618 973.396711,790.019639 936.822271,779.402802 931.615843,740.189641"/>
    <poly id="332147140" type="building.university" color="255,230,230" fill="1" layer="-1.00" shape="933.743059,704.238944 937.059720,704.086025 943.878018,703.784659 945.208117,732.993592 937.833848,733.325914 935.073189,733.447875 933.743059,704.238944"/>
    <poly id="332147142" type="building.yes" color="255,230,230" fill="1" layer="-1.00" shape="836.979919,744.950723 837.232809,742.526358 837.439060,740.500397 829.687601,739.591808 829.600104,741.298795 829.524534,742.895088 836.979919,744.950723"/>
    <poly id="332149037" type="building.university" color="255,230,230" fill="1" layer="-1.00" shape="1194.005359,657.959511 1190.343627,659.369177 1192.800186,665.699014 1197.916511,664.601988 1202.638136,674.082985 1183.937873,679.723478 1178.965994,669.492867 1174.226050,671.098420 1176.045979,681.940870 1147.111261,689.853151 1135.217544,698.743618 1131.886824,687.232053 1137.055981,683.184186 1135.667535,678.223063 1132.952431,677.990931 1130.079576,666.679108 1138.592583,666.330078 1168.426509,657.973395 1172.833977,667.435678 1175.132368,666.914170 1177.733694,666.111441 1175.441948,654.880244 1189.113511,647.098241 1194.005359,657.959511"/>
    <poly id="332151775" type="building.university" color="255,230,230" fill="1" layer="-1.00" shape="1280.282749,617.008536 1284.139957,615.170807 1282.791990,612.363667 1294.315087,607.326532 1297.859688,615.347443 1298.644716,616.942370 1283.498594,623.700814 1280.282749,617.008536"/>
    <poly id="332151776" type="building.university" color="255,230,230" fill="1" layer="-1.00" shape="1273.316698,605.819573 1287.286752,599.476575 1286.620578,594.499610 1284.697884,590.202516 1278.149898,593.096040 1280.239465,597.763407 1276.628894,599.351850 1274.741313,595.133295 1269.502929,597.448119 1270.389555,599.433933 1273.316698,605.819573"/>
    <poly id="332151777" type="building.university" color="255,230,230" fill="1" layer="-1.00" shape="889.183060,499.735102 886.639861,507.708656 883.120755,518.921462 856.391378,510.618182 853.993566,491.116493 853.668869,488.467316 862.310470,491.228585 889.183060,499.735102"/>
    <poly id="336804816" type="leisure.park" color="207,245,201" fill="1" layer="-2.00" shape="1015.538245,492.966419 1016.369578,499.922799 1021.413445,503.740363 1063.163422,522.339989 1066.651606,519.305759 1070.791117,513.446171 1076.334215,502.737370 1071.814897,494.448838 1070.817792,487.843580 1051.751482,489.857536 1049.414858,490.045210 1015.538245,492.966419"/>
    <poly id="338986030" type="building.university" color="255,230,230" fill="1" layer="-1.00" shape="1159.634352,629.305278 1166.882521,641.078073 1172.555967,637.608421 1178.275125,634.162074 1175.008523,628.800378 1171.028036,622.344904 1159.634352,629.305278"/>
    <poly id="339593437" type="building.university" color="255,230,230" fill="1" layer="-1.00" shape="1276.382417,574.352998 1280.087208,583.021465 1280.945283,585.039884 1298.523123,577.607805 1301.045332,583.517535 1304.102985,582.215368 1297.017929,565.618740 1276.382417,574.352998"/>
    <poly id="339706489" type="leisure.park" color="207,245,201" fill="1" layer="-2.00" shape="1307.329586,539.898760 1293.560399,521.875200 1287.693901,517.638045 1274.320264,512.331396 1262.438915,511.899638 1252.029695,513.734226 1244.075445,516.227516 1230.265046,524.383433 1223.676562,533.157999 1220.497479,546.365493 1212.210399,563.766573 1191.863848,578.922687 1167.136822,599.188987 1135.585260,617.337042 1092.897751,621.842759 1040.440974,605.547793 1035.464546,566.018276 971.946400,573.938666 976.923349,613.457045 974.000896,621.421414 963.150402,635.398014 949.856084,642.512463 922.738404,650.680191 900.232294,648.382957 895.191958,645.187030 892.641012,642.373088 887.371308,637.562408 881.961686,634.712707 877.841272,632.892975 871.012823,629.398614 858.618332,624.549030 859.165777,617.592678 860.467709,592.043125 851.706542,591.554061 832.088733,589.593115 807.439570,587.510710 794.681560,586.214909 797.803143,547.003219 768.305540,542.584243 763.838599,516.784438 770.879297,482.361841 780.028247,473.693205 800.871513,484.317890 824.156555,506.876497 838.310439,514.753888 857.475747,524.727793 907.448104,541.993788 883.703340,550.354111 879.459225,552.504495 877.152826,555.656119 876.170104,560.326855 880.878908,565.756564 892.627469,576.661202 906.318166,579.955120 918.049524,577.397439 927.306980,569.219876 931.129255,564.995083 937.284446,551.926019 937.134911,542.411374 940.868364,542.246326 951.432963,541.635945 1036.199193,516.483185 1046.689026,520.498992 1078.596869,541.590911 1084.899825,552.275362 1091.195053,572.082243 1092.909058,585.396974 1097.442892,596.526979 1102.809165,601.550979 1106.541652,602.573468 1111.298073,603.731697 1117.144528,603.440244 1146.000813,584.239216 1151.638449,574.598155 1155.588084,567.024906 1161.300581,554.289297 1208.583750,491.419257 1263.524281,473.926065 1296.389825,463.845193 1304.333772,521.436730 1351.066114,516.164172 1352.160075,530.229736 1368.333003,527.702420 1365.464386,505.137148 1379.592636,503.736751 1382.827404,509.264222 1388.800470,512.538484 1464.022647,514.326531 1465.780599,528.863223 1456.422670,567.535449 1457.876692,588.890114 1443.755343,591.156205 1413.099618,596.739833 1407.395109,590.020544 1402.818493,587.934278 1397.850376,588.257920 1393.371765,585.563636 1389.439377,572.539152 1383.916321,559.087731 1358.438395,569.446990 1352.207355,569.185182 1340.971329,565.417316 1348.598906,540.098526 1339.201440,537.984391 1327.069716,537.957118 1322.246536,536.497517 1307.329586,539.898760"/>
    <poly id="339750479" type="landuse.forest" color="140,196,107" fill="1" layer="-3.00" shape="950.661797,537.932757 916.706864,541.041076 859.205349,520.552310 841.251510,510.996092 827.556681,488.324995 830.965686,477.453553 842.775490,478.548923 863.320424,480.066148 875.254211,481.009181 890.325896,480.008183 901.111131,464.520587 985.685303,487.162027 989.064512,489.019380 1034.437217,513.954629 1006.249706,522.717783 950.661797,537.932757"/>
    <poly id="339751552" type="landuse.forest" color="140,196,107" fill="1" layer="-3.00" shape="936.336958,661.995830 938.952837,656.376832 950.747529,656.173516 950.918504,669.395433 958.018323,700.719246 942.442048,702.318311 941.805867,697.242225 937.485251,697.581748 936.336958,661.995830"/>
    <poly id="339860934" type="landuse.forest" color="140,196,107" fill="1" layer="-3.00" shape="919.067099,544.471906 920.407586,551.806811 927.546157,559.703525 933.140290,551.470753 933.564592,543.101974 919.067099,544.471906"/>
    <poly id="339861208" type="leisure.park" color="207,245,201" fill="1" layer="-2.00" shape="846.394129,639.469197 843.806218,655.043840 878.012001,659.920851 893.130880,649.676342 885.662876,640.861651 846.394129,639.469197"/>
    <poly id="339861209" type="building.university" color="255,230,230" fill="1" layer="-1.00" shape="876.582703,657.411460 872.079799,649.589543 867.070338,640.900844 884.126402,642.788890 889.406989,649.830539 876.582703,657.411460"/>
    <poly id="478886801" type="leisure.sports_centre" color="207,245,201" fill="1" layer="-2.00" shape="961.625104,682.050686 961.205360,666.869497 965.995877,652.446805 975.418436,640.499940 988.356096,632.444668 1003.267926,629.242587 1018.395432,631.284026 1031.931194,638.303340 1042.266180,649.484760 1048.164946,663.488840 1066.222474,746.439523 1066.651283,761.620951 1061.869896,776.043823 1052.447070,788.001695 1039.509547,796.056872 1024.597957,799.258884 1009.470454,797.228511 995.934916,790.209217 985.600050,779.027840 979.692035,765.023574 961.625104,682.050686"/>
    <poly id="478886805" type="building.residential" color="255,230,230" fill="1" layer="-1.00" shape="1355.358503,680.242388 1351.439308,669.349073 1357.854772,664.665600 1354.763672,657.410308 1358.540984,655.814834 1360.965498,652.377625 1366.198360,650.673113 1398.547436,649.292133 1403.431018,663.160914 1399.455329,664.540704 1355.358503,680.242388"/>
    <poly id="479889230" type="building.university" color="255,230,230" fill="1" layer="-1.00" shape="827.636243,635.242824 821.260370,691.178365 812.262170,690.161999 812.685124,686.443270 806.104992,685.696168 812.480506,629.771713 828.058935,631.535187 827.636243,635.242824"/>
    <poly id="479889231" type="building.yes" color="255,230,230" fill="1" layer="-1.00" shape="830.512725,715.773131 824.210342,715.021625 820.334002,711.143574 821.126045,704.403992 825.190196,702.038379 832.046170,702.858745 830.512725,715.773131"/>
    <poly id="479909377" type="amenity.parking" color="184,184,179" fill="1" layer="-1.00" shape="1139.785415,720.706197 1152.655170,753.723485 1157.806841,751.928117 1161.559067,762.462163 1166.087377,765.013267 1201.431515,755.713475 1179.956223,701.246225 1139.785415,720.706197"/>
    <poly id="479911316" type="building.yes" color="255,230,230" fill="1" layer="-1.00" shape="1292.122289,710.174939 1293.018269,712.538319 1291.303991,714.161546 1295.754353,718.786169 1298.397285,716.264276 1302.135323,713.613513 1305.929758,712.073925 1310.726398,710.802752 1315.822853,710.526568 1321.604345,711.387874 1322.530229,705.250842 1318.376629,704.806271 1317.986847,700.646151 1320.004436,699.873724 1316.968035,691.887295 1286.353572,703.431973 1289.329815,711.228268 1292.122289,710.174939"/>
    <poly id="479911317" type="building.yes" color="255,230,230" fill="1" layer="-1.00" shape="1355.358503,680.242388 1358.831121,689.704339 1362.403759,691.211380 1366.043051,702.197808 1404.810787,689.496814 1401.240687,678.711809 1403.227299,675.397184 1399.455329,664.540704 1355.358503,680.242388"/>
    <poly id="479911318" type="amenity.parking" color="184,184,179" fill="1" layer="-1.00" shape="1313.815164,621.415803 1393.371765,585.563636 1397.850376,588.257920 1402.818493,587.934278 1407.395109,590.020544 1413.099618,596.739833 1443.755343,591.156205 1455.796748,626.628782 1423.663685,636.282888 1408.812828,632.371916 1368.997385,636.735075 1321.705372,636.478205 1313.815164,621.415803"/>
    <poly id="479911319" type="building.yes" color="255,230,230" fill="1" layer="-1.00" shape="1423.771405,679.989814 1423.981582,658.697649 1433.029830,658.794666 1443.221006,677.042569 1439.212945,682.816407 1429.026587,682.714019 1429.054319,680.040048 1423.771405,679.989814"/>
    <poly id="479911320" type="building.yes" color="255,230,230" fill="1" layer="-1.00" shape="1491.799824,673.835323 1533.265180,668.214176 1530.497026,648.015146 1484.723497,654.220049 1485.612260,660.700673 1490.581185,664.927322 1491.799824,673.835323"/>
    <poly id="479911321" type="building.yes" color="255,230,230" fill="1" layer="-1.00" shape="1605.538093,640.433200 1603.325291,658.425115 1607.486544,658.936584 1611.032430,659.255573 1614.586110,659.252907 1621.569523,658.634178 1627.298867,657.829688 1632.712301,656.695699 1637.502624,654.925117 1639.910206,653.718282 1640.247008,646.312901 1615.418358,644.767836 1615.506253,641.140882 1605.538093,640.433200"/>
    <poly id="479911322" type="building.yes" color="255,230,230" fill="1" layer="-1.00" shape="1519.251990,620.175042 1517.192530,598.605925 1540.056460,596.451848 1542.115869,618.020974 1519.251990,620.175042"/>
    <poly id="479911972" type="leisure.pitch" color="207,245,201" fill="1" layer="-2.00" shape="995.567415,603.630818 992.614723,580.297924 1003.920801,578.873170 1006.873198,602.217160 995.567415,603.630818"/>
    <poly id="479911972#1" type="sport.tennis" color="79,230,125" fill="1" layer="-2.00" shape="995.567415,603.630818 992.614723,580.297924 1003.920801,578.873170 1006.873198,602.217160 995.567415,603.630818"/>
    <poly id="479911973" type="leisure.pitch" color="207,245,201" fill="1" layer="-2.00" shape="980.343097,605.593478 977.381389,582.249276 988.687193,580.835595 991.639894,604.168487 980.343097,605.593478"/>
    <poly id="479911973#1" type="sport.tennis" color="79,230,125" fill="1" layer="-2.00" shape="980.343097,605.593478 977.381389,582.249276 988.687193,580.835595 991.639894,604.168487 980.343097,605.593478"/>
    <poly id="479911974" type="leisure.pitch" color="207,245,201" fill="1" layer="-2.00" shape="1011.059688,601.685756 1008.098052,578.341541 1019.404136,576.916805 1022.356497,600.260802 1011.059688,601.685756"/>
    <poly id="479911974#1" type="sport.tennis" color="79,230,125" fill="1" layer="-2.00" shape="1011.059688,601.685756 1008.098052,578.341541 1019.404136,576.916805 1022.356497,600.260802 1011.059688,601.685756"/>
    <poly id="479911975" type="leisure.pitch" color="207,245,201" fill="1" layer="-2.00" shape="1025.818096,599.856158 1022.856227,576.523027 1034.162317,575.098308 1037.114643,598.442312 1025.818096,599.856158"/>