<?xml version="1.0" encoding="UTF-8"?>

<!-- generated on Sat Apr  4 23:45:59 2020 by Eclipse SUMO netconvert Version v1_3_1+1135-c7be102a27
<configuration xmlns:xsi="http://www.w3.org/2001/XMLSchema-instance" xsi:noNamespaceSchemaLocation="http://sumo.dlr.de/xsd/netconvertConfiguration.xsd">

    <input>
        <type-files value="/home/jihad/sumo_binaries/bin/data/typemap/osmNetconvert.typ.xml"/>
        <osm-files value="osm_bbox.osm.xml"/>
    </input>

    <output>
        <output-file value="osm.net.xml"/>
        <output.street-names value="true"/>
        <output.original-names value="true"/>
    </output>

    <projection>
        <proj.utm value="true"/>
    </projection>

    <processing>
        <geometry.remove value="true"/>
        <roundabouts.guess value="true"/>
    </processing>

    <tls_building>
        <tls.discard-simple value="true"/>
        <tls.join value="true"/>
        <tls.guess-signals value="true"/>
        <tls.default-type value="actuated"/>
    </tls_building>

    <ramp_guessing>
        <ramps.guess value="true"/>
    </ramp_guessing>

    <junctions>
        <junctions.join value="true"/>
        <junctions.corner-detail value="5"/>
    </junctions>

    <report>
        <verbose value="true"/>
    </report>

</configuration>
-->

<net version="1.3" junctionCornerDetail="5" limitTurnSpeed="5.50" xmlns:xsi="http://www.w3.org/2001/XMLSchema-instance" xsi:noNamespaceSchemaLocation="http://sumo.dlr.de/xsd/net_file.xsd">

    <location netOffset="-728423.50,-3753332.48" convBoundary="0.00,0.00,2084.31,894.77" origBoundary="35.470204,33.895645,35.492861,33.903478" projParameter="+proj=utm +zone=36 +ellps=WGS84 +datum=WGS84 +units=m +no_defs"/>

    <type id="highway.bridleway" priority="1" numLanes="1" speed="2.78" allow="pedestrian" oneway="1" width="2.00"/>
    <type id="highway.bus_guideway" priority="1" numLanes="1" speed="27.78" allow="bus" oneway="1"/>
    <type id="highway.cycleway" priority="1" numLanes="1" speed="8.33" allow="bicycle" oneway="0" width="1.00"/>
    <type id="highway.footway" priority="1" numLanes="1" speed="2.78" allow="pedestrian" oneway="1" width="2.00"/>
    <type id="highway.ford" priority="1" numLanes="1" speed="2.78" allow="army" oneway="0"/>
    <type id="highway.living_street" priority="3" numLanes="1" speed="2.78" disallow="tram rail_urban rail rail_electric ship" oneway="0"/>
    <type id="highway.motorway" priority="13" numLanes="2" speed="44.44" disallow="pedestrian moped bicycle tram rail_urban rail rail_electric ship" oneway="1"/>
    <type id="highway.motorway_link" priority="12" numLanes="1" speed="22.22" disallow="pedestrian moped bicycle tram rail_urban rail rail_electric ship" oneway="1"/>
    <type id="highway.path" priority="1" numLanes="1" speed="2.78" allow="pedestrian bicycle" oneway="1" width="2.00"/>
    <type id="highway.pedestrian" priority="1" numLanes="1" speed="2.78" allow="pedestrian" oneway="1" width="2.00"/>
    <type id="highway.primary" priority="9" numLanes="2" speed="27.78" disallow="tram rail_urban rail rail_electric ship" oneway="0"/>
    <type id="highway.primary_link" priority="8" numLanes="1" speed="22.22" disallow="tram rail_urban rail rail_electric ship" oneway="0"/>
    <type id="highway.raceway" priority="14" numLanes="2" speed="83.33" allow="vip" oneway="0"/>
    <type id="highway.residential" priority="4" numLanes="1" speed="13.89" disallow="tram rail_urban rail rail_electric ship" oneway="0"/>
    <type id="highway.secondary" priority="7" numLanes="2" speed="27.78" disallow="tram rail_urban rail rail_electric ship" oneway="0"/>
    <type id="highway.secondary_link" priority="6" numLanes="1" speed="22.22" disallow="tram rail_urban rail rail_electric ship" oneway="0"/>
    <type id="highway.service" priority="2" numLanes="1" speed="5.56" allow="pedestrian delivery bicycle" oneway="0"/>
    <type id="highway.stairs" priority="1" numLanes="1" speed="1.39" allow="pedestrian" oneway="1" width="2.00"/>
    <type id="highway.step" priority="1" numLanes="1" speed="1.39" allow="pedestrian" oneway="1" width="2.00"/>
    <type id="highway.steps" priority="1" numLanes="1" speed="1.39" allow="pedestrian" oneway="1" width="2.00"/>
    <type id="highway.tertiary" priority="6" numLanes="1" speed="22.22" disallow="tram rail_urban rail rail_electric ship" oneway="0"/>
    <type id="highway.tertiary_link" priority="5" numLanes="1" speed="22.22" disallow="tram rail_urban rail rail_electric ship" oneway="0"/>
    <type id="highway.track" priority="1" numLanes="1" speed="5.56" disallow="tram rail_urban rail rail_electric ship" oneway="0"/>
    <type id="highway.trunk" priority="11" numLanes="2" speed="27.78" disallow="pedestrian bicycle tram rail_urban rail rail_electric ship" oneway="0"/>
    <type id="highway.trunk_link" priority="10" numLanes="1" speed="22.22" disallow="pedestrian bicycle tram rail_urban rail rail_electric ship" oneway="0"/>
    <type id="highway.unclassified" priority="5" numLanes="1" speed="13.89" disallow="tram rail_urban rail rail_electric ship" oneway="0"/>
    <type id="highway.unsurfaced" priority="1" numLanes="1" speed="8.33" disallow="tram rail_urban rail rail_electric ship" oneway="0"/>
    <type id="railway.light_rail" priority="15" numLanes="1" speed="27.78" allow="rail_urban" oneway="1"/>
    <type id="railway.preserved" priority="15" numLanes="1" speed="27.78" allow="rail" oneway="1"/>
    <type id="railway.rail" priority="15" numLanes="1" speed="83.33" allow="rail rail_electric" oneway="1"/>
    <type id="railway.subway" priority="15" numLanes="1" speed="27.78" allow="rail_urban" oneway="1"/>
    <type id="railway.tram" priority="15" numLanes="1" speed="13.89" allow="tram" oneway="1"/>

    <edge id=":276494977_0" function="internal">
        <lane id=":276494977_0_0" index="0" disallow="tram rail_urban rail rail_electric ship" speed="4.72" length="4.96" shape="1425.88,638.23 1423.46,642.55"/>
    </edge>
    <edge id=":276494977_1" function="internal">
        <lane id=":276494977_1_0" index="0" disallow="tram rail_urban rail rail_electric ship" speed="13.89" length="9.34" shape="1425.88,638.23 1427.98,636.72 1429.86,636.47 1431.94,636.52 1434.65,635.91"/>
    </edge>
    <edge id=":276494977_2" function="internal">
        <lane id=":276494977_2_0" index="0" disallow="tram rail_urban rail rail_electric ship" speed="3.65" length="4.67" shape="1425.88,638.23 1427.29,637.91 1428.14,638.17 1428.45,639.01 1428.20,640.43"/>
    </edge>
    <edge id=":2822199212_0" function="internal">
        <lane id=":2822199212_0_0" index="0" disallow="tram rail_urban rail rail_electric ship" speed="5.40" length="5.43" shape="785.31,754.86 785.24,756.46 785.59,757.71 786.37,758.61 787.58,759.17"/>
    </edge>
    <edge id=":2822199212_1" function="internal">
        <lane id=":2822199212_1_0" index="0" allow="pedestrian delivery bicycle" speed="3.65" length="4.67" shape="785.31,754.86 784.33,755.92 783.47,756.18 782.75,755.66 782.15,754.35"/>
    </edge>
    <edge id=":2822199212_2" function="internal">
        <lane id=":2822199212_2_0" index="0" allow="pedestrian delivery bicycle" speed="4.94" length="5.12" shape="778.47,756.75 779.89,756.91 780.97,756.56 781.72,755.71 782.15,754.35"/>
    </edge>
    <edge id=":2822199212_3" function="internal">
        <lane id=":2822199212_3_0" index="0" disallow="tram rail_urban rail rail_electric ship" speed="13.89" length="9.41" shape="778.47,756.75 787.58,759.17"/>
        <lane id=":2822199212_3_1" index="1" disallow="tram rail_urban rail rail_electric ship" speed="13.89" length="9.41" shape="777.66,759.85 786.74,762.26"/>
    </edge>
    <edge id=":2822199213_0" function="internal">
        <lane id=":2822199213_0_0" index="0" allow="pedestrian delivery bicycle" speed="5.00" length="5.04" shape="809.70,618.48 808.31,618.41 807.26,618.81 806.52,619.68 806.12,621.01"/>
    </edge>
    <edge id=":2822199213_1" function="internal">
        <lane id=":2822199213_1_0" index="0" allow="pedestrian delivery bicycle" speed="5.56" length="9.43" shape="809.70,618.48 800.43,616.79"/>
    </edge>
    <edge id=":2822199213_2" function="internal">
        <lane id=":2822199213_2_0" index="0" allow="pedestrian delivery bicycle" speed="3.65" length="4.67" shape="809.70,618.48 808.67,617.47 808.43,616.61 808.97,615.89 810.30,615.33"/>
    </edge>
    <edge id=":2822199213_3" function="internal">
        <lane id=":2822199213_3_0" index="0" allow="pedestrian delivery bicycle" speed="5.56" length="9.48" shape="800.98,613.63 810.30,615.33"/>
    </edge>
    <edge id=":2822199213_4" function="internal">
        <lane id=":2822199213_4_0" index="0" allow="pedestrian delivery bicycle" speed="5.56" length="10.21" shape="800.98,613.63 803.59,614.49 805.32,616.01 806.16,618.18 806.12,621.01"/>
    </edge>
    <edge id=":2822199213_5" function="internal">
        <lane id=":2822199213_5_0" index="0" allow="pedestrian delivery bicycle" speed="3.65" length="4.67" shape="800.98,613.63 802.02,614.63 802.28,615.48 801.75,616.20 800.43,616.79"/>
    </edge>
    <edge id=":2822199213_6" function="internal">
        <lane id=":2822199213_6_0" index="0" allow="pedestrian delivery bicycle" speed="5.12" length="5.12" shape="802.96,620.52 802.98,619.08 802.57,617.98 801.72,617.22 800.43,616.79"/>
    </edge>
    <edge id=":2822199213_7" function="internal">
        <lane id=":2822199213_7_0" index="0" allow="pedestrian delivery bicycle" speed="5.56" length="10.34" shape="802.96,620.52 803.78,617.80 805.28,616.02 807.46,615.20 810.30,615.33"/>
    </edge>
    <edge id=":2822199213_8" function="internal">
        <lane id=":2822199213_8_0" index="0" allow="pedestrian delivery bicycle" speed="3.65" length="4.67" shape="802.96,620.52 803.93,619.46 804.78,619.18 805.51,619.70 806.12,621.01"/>
    </edge>
    <edge id=":2822217421_0" function="internal">
        <lane id=":2822217421_0_0" index="0" allow="pedestrian delivery bicycle" speed="3.65" length="4.67" shape="782.52,572.12 783.43,571.00 784.26,570.67 785.02,571.15 785.71,572.41"/>
    </edge>
    <edge id=":2822217423_0" function="internal">
        <lane id=":2822217423_0_0" index="0" allow="pedestrian delivery bicycle" speed="5.56" length="4.39" shape="859.02,627.34 857.81,626.88 856.95,626.64 856.07,626.47 854.79,626.25"/>
    </edge>
    <edge id=":2822217423_1" function="internal">
        <lane id=":2822217423_1_0" index="0" allow="pedestrian delivery bicycle" speed="3.65" length="4.67" shape="859.02,627.34 858.21,626.16 858.13,625.26 858.80,624.67 860.21,624.37"/>
    </edge>
    <edge id=":2822217423_2" function="internal">
        <lane id=":2822217423_2_0" index="0" allow="pedestrian delivery bicycle" speed="5.56" length="5.05" shape="855.35,623.10 856.82,623.35 857.83,623.55 858.82,623.84 860.21,624.37"/>
    </edge>
    <edge id=":2822217423_3" function="internal">
        <lane id=":2822217423_3_0" index="0" allow="pedestrian delivery bicycle" speed="3.65" length="4.67" shape="855.35,623.10 856.39,624.10 856.64,624.95 856.11,625.67 854.79,626.25"/>
    </edge>
    <edge id=":2822217426_0" function="internal">
        <lane id=":2822217426_0_0" index="0" allow="pedestrian delivery bicycle" speed="5.56" length="4.08" shape="983.79,626.15 982.68,626.62 981.94,626.99 981.27,627.49 980.40,628.32"/>
    </edge>
    <edge id=":2822217426_1" function="internal">
        <lane id=":2822217426_1_0" index="0" allow="pedestrian delivery bicycle" speed="3.65" length="4.67" shape="983.79,626.15 982.38,625.88 981.70,625.29 981.76,624.40 982.55,623.20"/>
    </edge>
    <edge id=":2822217426_2" function="internal">
        <lane id=":2822217426_2_0" index="0" allow="pedestrian delivery bicycle" speed="5.56" length="5.33" shape="978.14,626.06 979.27,624.97 980.13,624.31 981.10,623.81 982.55,623.20"/>
    </edge>
    <edge id=":2822217426_3" function="internal">
        <lane id=":2822217426_3_0" index="0" allow="pedestrian delivery bicycle" speed="3.65" length="4.67" shape="978.14,626.06 979.55,625.78 980.40,626.06 980.68,626.91 980.40,628.32"/>
    </edge>
    <edge id=":2822217427_0" function="internal">
        <lane id=":2822217427_0_0" index="0" allow="pedestrian delivery bicycle" speed="5.56" length="9.26" shape="1046.10,623.75 1044.97,621.27 1043.53,619.46 1041.78,618.31 1039.71,617.83"/>
    </edge>
    <edge id=":2822217427_1" function="internal">
        <lane id=":2822217427_1_0" index="0" allow="pedestrian delivery bicycle" speed="5.56" length="12.77" shape="1046.10,623.75 1045.01,620.52 1044.16,617.66 1043.48,614.76 1042.89,611.42"/>
    </edge>
    <edge id=":2822217427_2" function="internal">
        <lane id=":2822217427_2_0" index="0" allow="pedestrian delivery bicycle" speed="5.56" length="13.31" shape="1046.10,623.75 1045.30,619.83 1046.09,617.27 1048.47,616.08 1052.45,616.24"/>
    </edge>
    <edge id=":2822217427_3" function="internal">
        <lane id=":2822217427_3_0" index="0" allow="pedestrian delivery bicycle" speed="3.65" length="4.67" shape="1046.10,623.75 1046.45,622.35 1047.07,621.70 1047.96,621.81 1049.12,622.67"/>
    </edge>
    <edge id=":2822217427_4" function="internal">
        <lane id=":2822217427_4_0" index="0" allow="pedestrian delivery bicycle" speed="4.69" length="5.81" shape="1051.89,619.40 1050.15,619.32 1049.11,619.84 1048.77,620.96 1049.12,622.67"/>
    </edge>
    <edge id=":2822217427_5" function="internal">
        <lane id=":2822217427_5_0" index="0" allow="pedestrian delivery bicycle" speed="5.56" length="12.28" shape="1051.89,619.40 1048.61,618.83 1045.82,618.41 1043.03,618.09 1039.71,617.83"/>
    </edge>
    <edge id=":2822217427_6" function="internal">
        <lane id=":2822217427_6_0" index="0" allow="pedestrian delivery bicycle" speed="5.56" length="12.92" shape="1051.89,619.40 1048.32,618.36 1045.63,616.69 1043.82,614.37 1042.89,611.42"/>
    </edge>
    <edge id=":2822217427_7" function="internal">
        <lane id=":2822217427_7_0" index="0" allow="pedestrian delivery bicycle" speed="3.65" length="4.67" shape="1051.89,619.40 1050.85,618.40 1050.59,617.54 1051.13,616.82 1052.45,616.24"/>
    </edge>
    <edge id=":2822217427_8" function="internal">
        <lane id=":2822217427_8_0" index="0" allow="pedestrian delivery bicycle" speed="5.56" length="8.91" shape="1046.05,610.94 1046.69,612.88 1047.97,614.41 1049.89,615.53 1052.45,616.24"/>
    </edge>
    <edge id=":2822217427_9" function="internal">
        <lane id=":2822217427_9_0" index="0" allow="pedestrian delivery bicycle" speed="5.56" length="12.15" shape="1046.05,610.94 1046.62,614.19 1047.25,616.88 1048.05,619.54 1049.12,622.67"/>
    </edge>
    <edge id=":2822217427_10" function="internal">
        <lane id=":2822217427_10_0" index="0" allow="pedestrian delivery bicycle" speed="5.56" length="11.31" shape="1046.05,610.94 1046.07,614.14 1045.03,616.36 1042.91,617.58 1039.71,617.83"/>
    </edge>
    <edge id=":2822217427_11" function="internal">
        <lane id=":2822217427_11_0" index="0" allow="pedestrian delivery bicycle" speed="3.65" length="4.67" shape="1046.05,610.94 1045.44,612.24 1044.71,612.76 1043.86,612.48 1042.89,611.42"/>
    </edge>
    <edge id=":2822217427_12" function="internal">
        <lane id=":2822217427_12_0" index="0" allow="pedestrian delivery bicycle" speed="4.84" length="5.28" shape="1039.93,614.63 1041.42,614.52 1042.41,613.95 1042.90,612.91 1042.89,611.42"/>
    </edge>
    <edge id=":2822217427_13" function="internal">
        <lane id=":2822217427_13_0" index="0" allow="pedestrian delivery bicycle" speed="5.56" length="12.63" shape="1039.93,614.63 1043.29,614.90 1046.21,615.24 1049.11,615.67 1052.45,616.24"/>
    </edge>
    <edge id=":2822217427_14" function="internal">
        <lane id=":2822217427_14_0" index="0" allow="pedestrian delivery bicycle" speed="5.56" length="12.98" shape="1039.93,614.63 1042.96,615.30 1045.50,616.86 1047.55,619.32 1049.12,622.67"/>
    </edge>
    <edge id=":2822217427_15" function="internal">
        <lane id=":2822217427_15_0" index="0" allow="pedestrian delivery bicycle" speed="3.65" length="4.67" shape="1039.93,614.63 1041.07,615.51 1041.41,616.34 1040.96,617.11 1039.71,617.83"/>
    </edge>
    <edge id=":288302895_0" function="internal">
        <lane id=":288302895_0_0" index="0" disallow="tram rail_urban rail rail_electric ship" speed="7.70" length="10.36" shape="356.17,622.73 355.49,625.71 355.62,628.26 356.56,630.38 358.31,632.06"/>
    </edge>
    <edge id=":288302895_1" function="internal">
        <lane id=":288302895_1_0" index="0" disallow="tram rail_urban rail rail_electric ship" speed="3.65" length="4.67" shape="356.17,622.73 355.02,623.61 354.14,623.73 353.51,623.09 353.14,621.70"/>
    </edge>
    <edge id=":288302895_2" function="internal">
        <lane id=":288302895_2_0" index="0" disallow="tram rail_urban rail rail_electric ship" speed="6.09" length="9.06" shape="346.09,624.27 348.45,625.27 350.41,625.18 351.97,623.99 353.14,621.70"/>
    </edge>
    <edge id=":288302895_3" function="internal">
        <lane id=":288302895_3_0" index="0" disallow="tram rail_urban rail rail_electric ship" speed="27.78" length="14.41" shape="346.09,624.27 358.31,632.06"/>
        <lane id=":288302895_3_1" index="1" disallow="tram rail_urban rail rail_electric ship" speed="27.78" length="14.41" shape="344.43,627.01 356.51,634.71"/>
    </edge>
    <edge id=":288307138_0" function="internal">
        <lane id=":288307138_0_0" index="0" disallow="tram rail_urban rail rail_electric ship" speed="27.78" length="7.94" shape="1841.64,665.18 1848.61,669.08"/>
        <lane id=":288307138_0_1" index="1" disallow="tram rail_urban rail rail_electric ship" speed="27.78" length="7.94" shape="1840.12,667.99 1847.00,671.84"/>
    </edge>
    <edge id=":288307138_2" function="internal">
        <lane id=":288307138_2_0" index="0" disallow="tram rail_urban rail rail_electric ship" speed="20.84" length="8.10" shape="1843.05,662.55 1850.22,666.31"/>
    </edge>
    <edge id=":3392169173_0" function="internal">
        <lane id=":3392169173_0_0" index="0" allow="pedestrian delivery bicycle" speed="5.56" length="5.13" shape="1079.91,624.34 1074.86,623.43"/>
    </edge>
    <edge id=":3392169173_1" function="internal">
        <lane id=":3392169173_1_0" index="0" allow="pedestrian delivery bicycle" speed="3.65" length="4.67" shape="1079.91,624.34 1078.89,623.33 1078.65,622.47 1079.19,621.76 1080.53,621.20"/>
    </edge>
    <edge id=":3392169173_2" function="internal">
        <lane id=":3392169173_2_0" index="0" allow="pedestrian delivery bicycle" speed="5.56" length="5.26" shape="1075.35,620.27 1080.53,621.20"/>
    </edge>
    <edge id=":3392169173_3" function="internal">
        <lane id=":3392169173_3_0" index="0" allow="pedestrian delivery bicycle" speed="3.65" length="4.67" shape="1075.35,620.27 1076.41,621.24 1076.69,622.09 1076.17,622.82 1074.86,623.43"/>
    </edge>
    <edge id=":3392169177_0" function="internal">
        <lane id=":3392169177_0_0" index="0" allow="pedestrian delivery bicycle" speed="5.56" length="5.46" shape="1122.67,623.92 1121.06,624.09 1119.95,624.18 1118.84,624.22 1117.22,624.25"/>
    </edge>
    <edge id=":3392169177_1" function="internal">
        <lane id=":3392169177_1_0" index="0" allow="pedestrian delivery bicycle" speed="3.65" length="2.34" shape="1122.67,623.92 1121.39,623.26 1120.90,622.51"/>
    </edge>
    <edge id=":3392169177_4" function="internal">
        <lane id=":3392169177_4_0" index="0" allow="pedestrian delivery bicycle" speed="3.65" length="2.34" shape="1120.90,622.51 1121.20,621.67 1122.30,620.74"/>
    </edge>
    <edge id=":3392169177_2" function="internal">
        <lane id=":3392169177_2_0" index="0" allow="pedestrian delivery bicycle" speed="5.56" length="5.18" shape="1117.14,621.05 1118.68,621.02 1119.73,620.98 1120.78,620.91 1122.30,620.74"/>
    </edge>
    <edge id=":3392169177_3" function="internal">
        <lane id=":3392169177_3_0" index="0" allow="pedestrian delivery bicycle" speed="3.65" length="2.34" shape="1117.14,621.05 1118.36,621.82 1118.78,622.61"/>
    </edge>
    <edge id=":3392169177_5" function="internal">
        <lane id=":3392169177_5_0" index="0" allow="pedestrian delivery bicycle" speed="3.65" length="2.34" shape="1118.78,622.61 1118.40,623.42 1117.22,624.25"/>
    </edge>
    <edge id=":3392169182_0" function="internal">
        <lane id=":3392169182_0_0" index="0" allow="pedestrian delivery bicycle" speed="5.00" length="5.05" shape="1207.97,577.76 1207.09,576.68 1206.09,576.15 1204.96,576.18 1203.70,576.76"/>
    </edge>
    <edge id=":3392169182_1" function="internal">
        <lane id=":3392169182_1_0" index="0" allow="pedestrian delivery bicycle" speed="5.56" length="9.72" shape="1207.97,577.76 1206.84,575.25 1206.57,572.92 1207.14,570.79 1208.57,568.84"/>
    </edge>
    <edge id=":3392169182_2" function="internal">
        <lane id=":3392169182_2_0" index="0" allow="pedestrian delivery bicycle" speed="3.65" length="4.67" shape="1207.97,577.76 1208.04,576.32 1208.52,575.57 1209.42,575.50 1210.72,576.12"/>
    </edge>
    <edge id=":3392169182_3" function="internal">
        <lane id=":3392169182_3_0" index="0" allow="pedestrian delivery bicycle" speed="5.56" length="5.44" shape="1210.83,571.11 1210.09,572.15 1209.83,573.33 1210.04,574.66 1210.72,576.12"/>
    </edge>
    <edge id=":3392169182_4" function="internal">
        <lane id=":3392169182_4_0" index="0" allow="pedestrian delivery bicycle" speed="5.56" length="9.13" shape="1210.83,571.11 1208.89,573.00 1207.49,574.21 1205.97,575.29 1203.70,576.76"/>
    </edge>
    <edge id=":3392169182_5" function="internal">
        <lane id=":3392169182_5_0" index="0" allow="pedestrian delivery bicycle" speed="3.65" length="4.67" shape="1210.83,571.11 1209.42,571.39 1208.57,571.11 1208.29,570.26 1208.57,568.84"/>
    </edge>
    <edge id=":3392169182_6" function="internal">
        <lane id=":3392169182_6_0" index="0" allow="pedestrian delivery bicycle" speed="5.56" length="8.46" shape="1201.96,574.08 1204.06,572.71 1205.47,571.72 1206.78,570.59 1208.57,568.84"/>
    </edge>
    <edge id=":3392169182_7" function="internal">
        <lane id=":3392169182_7_0" index="0" allow="pedestrian delivery bicycle" speed="5.56" length="10.35" shape="1201.96,574.08 1204.54,572.88 1206.87,572.82 1208.92,573.90 1210.72,576.12"/>
    </edge>
    <edge id=":3392169182_8" function="internal">
        <lane id=":3392169182_8_0" index="0" allow="pedestrian delivery bicycle" speed="3.65" length="4.67" shape="1201.96,574.08 1203.40,574.09 1204.17,574.55 1204.27,575.44 1203.70,576.76"/>
    </edge>
    <edge id=":3392193188_0" function="internal">
        <lane id=":3392193188_0_0" index="0" allow="pedestrian delivery bicycle" speed="5.56" length="18.24" shape="1294.23,525.51 1291.35,522.56 1287.17,520.16 1282.56,518.31 1278.42,517.03"/>
    </edge>
    <edge id=":3392193188_1" function="internal">
        <lane id=":3392193188_1_0" index="0" allow="pedestrian delivery bicycle" speed="5.56" length="18.07" shape="1294.23,525.51 1291.93,521.96 1289.08,518.08 1286.02,514.38 1283.06,511.37"/>
    </edge>
    <edge id=":3392193188_2" function="internal">
        <lane id=":3392193188_2_0" index="0" allow="pedestrian delivery bicycle" speed="3.65" length="4.67" shape="1294.23,525.51 1294.30,524.07 1294.78,523.32 1295.67,523.25 1296.97,523.87"/>
    </edge>
    <edge id=":3392193188_3" function="internal">
        <lane id=":3392193188_3_0" index="0" allow="pedestrian delivery bicycle" speed="5.56" length="18.07" shape="1285.92,509.63 1288.86,512.65 1291.89,516.39 1294.69,520.30 1296.97,523.87"/>
    </edge>
    <edge id=":3392193188_4" function="internal">
        <lane id=":3392193188_4_0" index="0" allow="pedestrian delivery bicycle" speed="5.56" length="14.36" shape="1285.92,509.63 1287.39,512.64 1285.93,515.36 1282.59,517.07 1278.42,517.03"/>
    </edge>
    <edge id=":3392193188_5" function="internal">
        <lane id=":3392193188_5_0" index="0" allow="pedestrian delivery bicycle" speed="3.71" length="4.89" shape="1285.92,509.63 1285.86,511.14 1285.36,511.93 1284.43,512.01 1283.06,511.37"/>
    </edge>
    <edge id=":3392193188_6" function="internal">
        <lane id=":3392193188_6_0" index="0" allow="pedestrian delivery bicycle" speed="5.04" length="9.23" shape="1280.34,514.23 1283.74,514.94 1285.32,514.70 1285.10,513.51 1283.06,511.37"/>
    </edge>
    <edge id=":3392193188_7" function="internal">
        <lane id=":3392193188_7_0" index="0" allow="pedestrian delivery bicycle" speed="5.56" length="19.50" shape="1280.34,514.23 1284.62,515.69 1289.50,517.94 1293.97,520.74 1296.97,523.87"/>
    </edge>
    <edge id=":3392193188_8" function="internal">
        <lane id=":3392193188_8_0" index="0" allow="pedestrian delivery bicycle" speed="3.72" length="4.95" shape="1280.34,514.23 1280.91,515.65 1280.78,516.59 1279.95,517.05 1278.42,517.03"/>
    </edge>
    <edge id=":3392971502_0" function="internal">
        <lane id=":3392971502_0_0" index="0" allow="pedestrian delivery bicycle" speed="5.56" length="13.08" shape="1101.52,585.01 1097.59,582.82 1094.70,580.67 1092.87,578.57 1092.10,576.52"/>
    </edge>
    <edge id=":3392971502_1" function="internal">
        <lane id=":3392971502_1_0" index="0" allow="pedestrian delivery bicycle" speed="3.65" length="4.67" shape="1101.52,585.01 1100.80,583.76 1100.80,582.87 1101.52,582.33 1102.95,582.15"/>
    </edge>
    <edge id=":3392971502_2" function="internal">
        <lane id=":3392971502_2_0" index="0" allow="pedestrian delivery bicycle" speed="5.56" length="9.97" shape="1095.27,576.13 1095.86,577.39 1097.33,578.81 1099.70,580.39 1102.95,582.15"/>
    </edge>
    <edge id=":3392971502_3" function="internal">
        <lane id=":3392971502_3_0" index="0" allow="pedestrian delivery bicycle" speed="3.65" length="4.67" shape="1095.27,576.13 1094.62,577.42 1093.88,577.92 1093.04,577.62 1092.10,576.52"/>
    </edge>
    <edge id=":3392987457_0" function="internal">
        <lane id=":3392987457_0_0" index="0" allow="pedestrian delivery bicycle" speed="3.65" length="4.67" shape="1040.35,594.67 1040.96,593.36 1041.69,592.85 1042.54,593.12 1043.51,594.19"/>
    </edge>
    <edge id=":3392987469_0" function="internal">
        <lane id=":3392987469_0_0" index="0" allow="pedestrian delivery bicycle" speed="5.08" length="4.97" shape="846.09,625.11 844.73,625.13 843.70,625.57 842.97,626.45 842.57,627.75"/>
    </edge>
    <edge id=":3392987469_1" function="internal">
        <lane id=":3392987469_1_0" index="0" allow="pedestrian delivery bicycle" speed="5.56" length="9.30" shape="846.09,625.11 836.90,623.64"/>
    </edge>
    <edge id=":3392987469_2" function="internal">
        <lane id=":3392987469_2_0" index="0" allow="pedestrian delivery bicycle" speed="3.65" length="4.67" shape="846.09,625.11 845.00,624.17 844.71,623.32 845.21,622.58 846.50,621.94"/>
    </edge>
    <edge id=":3392987469_3" function="internal">
        <lane id=":3392987469_3_0" index="0" allow="pedestrian delivery bicycle" speed="5.56" length="9.12" shape="837.50,620.50 846.50,621.94"/>
    </edge>
    <edge id=":3392987469_4" function="internal">
        <lane id=":3392987469_4_0" index="0" allow="pedestrian delivery bicycle" speed="5.56" length="10.03" shape="837.50,620.50 840.09,621.39 841.80,622.89 842.62,625.01 842.57,627.75"/>
    </edge>
    <edge id=":3392987469_5" function="internal">
        <lane id=":3392987469_5_0" index="0" allow="pedestrian delivery bicycle" speed="3.65" length="4.67" shape="837.50,620.50 838.53,621.51 838.77,622.37 838.23,623.08 836.90,623.64"/>
    </edge>
    <edge id=":3392987469_6" function="internal">
        <lane id=":3392987469_6_0" index="0" allow="pedestrian delivery bicycle" speed="5.07" length="4.97" shape="839.41,627.23 839.44,625.88 839.03,624.83 838.18,624.08 836.90,623.64"/>
    </edge>
    <edge id=":3392987469_7" function="internal">
        <lane id=":3392987469_7_0" index="0" allow="pedestrian delivery bicycle" speed="5.56" length="10.02" shape="839.41,627.23 840.23,624.62 841.68,622.87 843.77,621.97 846.50,621.94"/>
    </edge>
    <edge id=":3392987469_8" function="internal">
        <lane id=":3392987469_8_0" index="0" allow="pedestrian delivery bicycle" speed="3.65" length="4.67" shape="839.41,627.23 840.39,626.18 841.25,625.91 841.97,626.43 842.57,627.75"/>
    </edge>
    <edge id=":3393006439_0" function="internal">
        <lane id=":3393006439_0_0" index="0" allow="pedestrian delivery bicycle" speed="5.56" length="10.92" shape="1055.54,670.26 1054.88,667.22 1054.56,664.89 1054.53,662.55 1054.74,659.44"/>
    </edge>
    <edge id=":3393006439_1" function="internal">
        <lane id=":3393006439_1_0" index="0" allow="pedestrian delivery bicycle" speed="5.56" length="11.09" shape="1055.54,670.26 1055.28,667.15 1056.13,664.88 1058.08,663.45 1061.15,662.86"/>
    </edge>
    <edge id=":3393006439_2" function="internal">
        <lane id=":3393006439_2_0" index="0" allow="pedestrian delivery bicycle" speed="3.65" length="4.67" shape="1055.54,670.26 1056.05,668.92 1056.74,668.35 1057.61,668.56 1058.66,669.55"/>
    </edge>
    <edge id=":3393006439_3" function="internal">
        <lane id=":3393006439_3_0" index="0" allow="pedestrian delivery bicycle" speed="4.87" length="5.23" shape="1061.30,666.05 1059.86,666.33 1058.93,667.01 1058.53,668.08 1058.66,669.55"/>
    </edge>
    <edge id=":3393006439_4" function="internal">
        <lane id=":3393006439_4_0" index="0" allow="pedestrian delivery bicycle" speed="5.56" length="10.98" shape="1061.30,666.05 1058.21,665.77 1056.09,664.57 1054.93,662.46 1054.74,659.44"/>
    </edge>
    <edge id=":3393006439_5" function="internal">
        <lane id=":3393006439_5_0" index="0" allow="pedestrian delivery bicycle" speed="3.65" length="4.67" shape="1061.30,666.05 1060.06,665.31 1059.63,664.53 1059.99,663.71 1061.15,662.86"/>
    </edge>
    <edge id=":3393006439_6" function="internal">