<?xml version="1.0" encoding="UTF-8"?>

<!-- generated on Sun 15 Mar 2020 06:59:40 PM EET by Eclipse SUMO netedit Version v1_1_0+0000-2147d155b1
<configuration xmlns:xsi="http://www.w3.org/2001/XMLSchema-instance" xsi:noNamespaceSchemaLocation="http://sumo.dlr.de/xsd/netconvertConfiguration.xsd">

    <input>
        <sumo-net-file value="/home/jihad/Desktop/ns3-gym/rl_fyp/sumo_files/sumo_two_lane_highway/two_lane_highway.net.xml"/>
    </input>

    <output>
        <output-file value="/home/jihad/Desktop/ns3-gym/rl_fyp/sumo_files/sumo_two_lane_highway/two_lane_highway.net.xml"/>
    </output>

    <processing>
        <geometry.max-grade.fix value="false"/>
        <offset.disable-normalization value="true"/>
        <lefthand value="false"/>
    </processing>

    <junctions>
        <no-internal-links value="true"/>
        <no-turnarounds value="true"/>
        <junctions.corner-detail value="5"/>
        <junctions.limit-turn-speed value="5.5"/>
        <rectangular-lane-cut value="false"/>
    </junctions>

    <pedestrian>
        <walkingareas value="false"/>
    </pedestrian>

</configuration>
-->

<net version="1.1" junctionCornerDetail="5" limitTurnSpeed="5.50" xmlns:xsi="http://www.w3.org/2001/XMLSchema-instance" xsi:noNamespaceSchemaLocation="http://sumo.dlr.de/xsd/net_file.xsd">

    <location netOffset="0.00,0.00" convBoundary="-34.93,-31.04,349.44,0.00" origBoundary="-10000000000.00,-10000000000.00,10000000000.00,10000000000.00" projParameter="!"/>

    <edge id="gneE0" from="gneJ0" to="gneJ1" priority="-1" length="250.00">
        <lane id="gneE0_0" index="0" speed="13.89" length="250.00" shape="0.00,-4.80 250.00,-4.80"/>
        <lane id="gneE0_1" index="1" speed="13.89" length="250.00" shape="0.00,-1.60 250.00,-1.60"/>
    </edge>
    <edge id="gneE1" from="gneJ2" to="gneJ0" priority="-1">
        <lane id="gneE1_0" index="0" speed="13.89" length="37.96" shape="-32.65,-4.80 0.00,-4.80"/>
        <lane id="gneE1_1" index="1" speed="13.89" length="37.96" shape="-32.65,-1.60 0.00,-1.60"/>
    </edge>
    <edge id="gneE3" from="gneJ1" to="gneJ5" priority="-1">
        <lane id="gneE3_0" index="0" speed="13.89" length="98.71" shape="250.00,-4.80 342.13,-4.80"/>
        <lane id="gneE3_1" index="1" speed="13.89" length="98.71" shape="250.00,-1.60 342.13,-1.60"/>
    </edge>
    <edge id="gneE5" from="gneJ5" to="gneJ8" priority="-1" length="30.00">
        <lane id="gneE5_0" index="0" speed="13.89" length="30.00" shape="347.65,-10.43 347.31,-29.54"/>
    </edge>
    <edge id="gneE6" from="gneJ9" to="gneJ8" priority="-1" length="250.00">
        <lane id="gneE6_0" index="0" speed="13.89" length="250.00" shape="-31.55,-29.56 344.17,-32.60"/>
    </edge>
    <edge id="gneE7" from="gneJ2" to="gneJ9" priority="-1" length="30.00">
        <lane id="gneE7_0" index="0" speed="13.89" length="30.00" shape="-35.56,-8.08 -33.13,-28.16"/>
    </edge>

    <tlLogic id="gneJ1" type="static" programID="0" offset="0">
        <phase duration="82" state="GG"/>
        <phase duration="3"  state="yy"/>
        <phase duration="5"  state="rr"/>
    </tlLogic>

    <junction id="gneJ0" type="priority" x="0.00" y="0.00" incLanes="gneE1_0 gneE1_1" intLanes="" shape="0.00,0.00 0.00,-6.40 0.00,0.00">
        <request index="0" response="00" foes="00"/>
        <request index="1" response="00" foes="00"/>
    </junction>
    <junction id="gneJ1" type="traffic_light" x="250.00" y="0.00" incLanes="gneE0_0 gneE0_1" intLanes="" shape="250.00,0.00 250.00,-6.40 250.00,0.00">
        <request index="0" response="00" foes="00"/>
        <request index="1" response="00" foes="00"/>
    </junction>
    <junction id="gneJ2" type="dead_end" x="-34.93" y="0.00" incLanes="" intLanes="" shape="-32.65,0.00 -32.65,-6.40 -33.47,-6.57 -33.73,-6.77 -33.91,-7.06 -33.99,-7.43 -33.97,-7.89 -37.15,-8.27 -37.30,-5.75 -37.10,-3.68 -36.53,-2.07 -35.60,-0.92 -34.31,-0.23"/>
    <junction id="gneJ5" type="priority" x="349.44" y="0.00" incLanes="gneE3_0 gneE3_1" intLanes="" shape="349.25,-10.46 346.05,-10.40 345.65,-8.18 345.11,-7.40 344.34,-6.84 343.35,-6.51 342.13,-6.40 342.13,0.00 344.36,-0.29 346.17,-1.16 347.56,-2.61 348.54,-4.65 349.11,-7.26">
        <request index="0" response="0" foes="0"/>
    </junction>
    <junction id="gneJ8" type="dead_end" x="348.89" y="-31.04" incLanes="gneE5_0 gneE6_0" intLanes="" shape="345.71,-29.51 348.91,-29.57 348.35,-32.16 347.68,-33.06 346.76,-33.70 345.59,-34.08 344.16,-34.20 344.19,-31.00 345.02,-30.84 345.32,-30.63 345.53,-30.34 345.66,-29.97"/>
    <junction id="gneJ9" type="priority" x="-31.54" y="-27.96" incLanes="gneE7_0" intLanes="" shape="-31.54,-27.96 -31.57,-31.16 -33.17,-30.84 -33.76,-30.45 -34.22,-29.90 -34.54,-29.20 -34.72,-28.35">
        <request index="0" response="0" foes="0"/>
    </junction>

    <connection from="gneE0" to="gneE3" fromLane="0" toLane="0" tl="gneJ1" linkIndex="0" dir="s" state="O"/>
    <connection from="gneE0" to="gneE3" fromLane="1" toLane="1" tl="gneJ1" linkIndex="1" dir="s" state="O"/>
    <connection from="gneE1" to="gneE0" fromLane="0" toLane="0" dir="s" state="M"/>
    <connection from="gneE1" to="gneE0" fromLane="1" toLane="1" dir="s" state="M"/>
    <connection from="gneE3" to="gneE5" fromLane="1" toLane="0" dir="r" state="M"/>
    <connection from="gneE7" to="gneE6" fromLane="0" toLane="0" dir="l" state="M"/>

</net>
