<?xml version="1.0" encoding="UTF-8"?>

<!-- generated on 26 آذار, 2020 EET 08:20:30 م by Eclipse SUMO netedit Version v1_1_0+0000-2147d155b1
<configuration xmlns:xsi="http://www.w3.org/2001/XMLSchema-instance" xsi:noNamespaceSchemaLocation="http://sumo.dlr.de/xsd/netconvertConfiguration.xsd">

    <input>
        <sumo-net-file value="/home/rayyan/Desktop/FYP/repos/ns3-gym/rl_fyp/sumo_files/sumo_two_lane_highway/two_lane_highway.net.xml"/>
    </input>

    <output>
        <output-file value="/home/rayyan/Desktop/FYP/repos/ns3-gym/rl_fyp/sumo_files/sumo_two_lane_highway/two_lane_highway.net.xml"/>
    </output>

    <processing>
        <geometry.max-grade.fix value="false"/>
        <offset.disable-normalization value="true"/>
        <lefthand value="false"/>
    </processing>

    <junctions>
        <no-internal-links value="true"/>
        <no-turnarounds value="true"/>
        <junctions.corner-detail value="5"/>
        <junctions.limit-turn-speed value="5.5"/>
        <rectangular-lane-cut value="false"/>
    </junctions>

    <pedestrian>
        <walkingareas value="false"/>
    </pedestrian>

</configuration>
-->

<net version="1.1" junctionCornerDetail="5" limitTurnSpeed="5.50" xmlns:xsi="http://www.w3.org/2001/XMLSchema-instance" xsi:noNamespaceSchemaLocation="http://sumo.dlr.de/xsd/net_file.xsd">

    <location netOffset="0.00,0.00" convBoundary="-34.93,0.00,274.99,0.00" origBoundary="-10000000000.00,-10000000000.00,10000000000.00,10000000000.00" projParameter="!"/>

    <edge id="gneE0" from="gneJ0" to="gneJ1" priority="-1" length="250.00">
        <lane id="gneE0_0" index="0" speed="13.89" length="250.00" shape="0.00,-1.60 250.00,-1.60"/>
    </edge>
    <edge id="gneE1" from="gneJ2" to="gneJ0" priority="-1">
        <lane id="gneE1_0" index="0" speed="13.89" length="34.93" shape="-34.93,-1.60 0.00,-1.60"/>
    </edge>
    <edge id="gneE3" from="gneJ1" to="gneJ5" priority="-1" length="25.00">
        <lane id="gneE3_0" index="0" speed="13.89" length="25.00" shape="250.00,-1.60 274.99,-1.60"/>
    </edge>

    <tlLogic id="gneJ1" type="static" programID="0" offset="0">
        <phase duration="150" state="G"/>
        <phase duration="10"  state="y"/>
        <phase duration="10"  state="r"/>
    </tlLogic>

    <junction id="gneJ0" type="priority" x="0.00" y="0.00" incLanes="gneE1_0" intLanes="" shape="0.00,0.00 0.00,-3.20 0.00,0.00">
        <request index="0" response="0" foes="0"/>
    </junction>
    <junction id="gneJ1" type="traffic_light" x="250.00" y="0.00" incLanes="gneE0_0" intLanes="" shape="250.00,0.00 250.00,-3.20 250.00,0.00">
        <request index="0" response="0" foes="0"/>
    </junction>
    <junction id="gneJ2" type="dead_end" x="-34.93" y="0.00" incLanes="" intLanes="" shape="-34.93,0.00 -34.93,-3.20"/>
    <junction id="gneJ5" type="dead_end" x="274.99" y="0.00" incLanes="gneE3_0" intLanes="" shape="274.99,-3.20 274.99,0.00"/>

    <connection from="gneE0" to="gneE3" fromLane="0" toLane="0" tl="gneJ1" linkIndex="0" dir="s" state="O"/>
    <connection from="gneE1" to="gneE0" fromLane="0" toLane="0" dir="s" state="M"/>

</net>
