<routes>
	<vType id="car" type="passenger" length="5" accel="2" decel="4.5" sigma="0.5" carFollowModel="IDM"  lcStrategic="0" lcCooperative="0" lcSpeedGain="0" lcKeepRight="0" lcOvertakeRight="0" lcLookaheadLeft="0" lcSpeedGainRight="0" lcSpeedGainLookahead="0" lcCooperativeRoundabout="0" lcCooperativeSpeed="0" lcPushy="0" impatience="0.5" minGap="0" tau="2.5" probability="0.5" color="yellow"/>

	<flow id="carflow" type="car" departLane="free" departSpeed="7.5" begin="1" end="30000" vehsPerHour="2000.0" from="gneE1" to="gneE3" />

</routes>
