<!--
	The following list was taken from the official SUMO documentation site regarding lane changing behavior:
		url: https://sumo.dlr.de/docs/Definition_of_Vehicles,_Vehicle_Types,_and_Routes.html#lane-changing_models
-->

<routes>
	<vType id="car" type="passenger" length="5" accel="6" decel="6" sigma="0.5" carFollowModel="IDM"
		   lcStrategic="0" lcCooperative="0" lcSpeedGain="0" lcKeepRight="0" lcOvertakeRight="0" lcSpeedGainRight="0.1"
		   		lcSpeedGainLookahead="0" lcCooperativeSpeed="0.1" lcPushy="0" impatience="0.5" minGap="0" tau="2.5"
		   			probability="0.5" color="yellow"/>

	<flow id="carflow" type="car" departLane="free" departSpeed="7.5" begin="1" end="30000" vehsPerHour="2000.0" from="gneE1" to="gneE3" />

</routes>
