<routes>
	<vType id="car" type="passenger" length="5" accel="2" decel="4.5" sigma="0.5" carFollowModel="IDM" impatience="0.5" minGap="0" tau="2.5" probability="0.5" color="yellow"/>

	<flow id="carflow" type="car" departLane="free" departSpeed="7.5" begin="1" end="300000" vehsPerHour="2000.0" from="gneE1" to="gneE3" />

</routes>
